     258
 i =        0, time =        0.000, E =     -2006.3832390471
 Au         6.4310000000        7.2440000000       15.0560000000
 Au         7.8730000000        9.8340000000       15.1270000000
 Au         6.4790000000        5.8270000000       10.1270000000
 Au         7.9950000000        8.1910000000       10.3980000000
 Au         6.5290000000        5.5470000000       17.3950000000
 Au         7.8760000000        8.0980000000       17.3060000000
 Au         7.9020000000        6.5870000000       12.6420000000
 Au         9.2700000000        9.0720000000       12.7180000000
 Au         9.3630000000        7.2240000000       15.0150000000
 Au        10.8360000000        9.7980000000       15.0520000000
 Au         9.4020000000        5.6300000000       10.1590000000
 Au        10.7920000000        8.2810000000       10.4870000000
 Au         9.4100000000        5.5520000000       17.4240000000
 Au        10.9400000000        7.9230000000       17.2060000000
 Au        10.6340000000        6.3680000000       12.5690000000
 Au         0.5480000000        8.9490000000       12.6750000000
 Au         0.6460000000        7.2510000000       14.8680000000
 Au         2.1810000000        9.7960000000       15.1870000000
 Au         0.6580000000        5.8160000000       10.1920000000
 Au         2.1970000000        8.0150000000       10.4400000000
 Au         0.9040000000        5.5860000000       17.2690000000
 Au         2.1540000000        8.1150000000       17.2940000000
 Au         2.1720000000        6.4920000000       12.7670000000
 Au         3.5780000000        9.0440000000       12.7330000000
 Au         3.5810000000        7.1450000000       15.0340000000
 Au         5.0210000000        9.7970000000       15.0470000000
 Au         3.6030000000        5.5880000000       10.4410000000
 Au         4.9930000000        8.2440000000       10.4870000000
 Au         3.6770000000        5.5350000000       17.2910000000
 Au         5.0380000000        7.9410000000       17.4560000000
 Au         5.1530000000        6.5380000000       12.5780000000
 Au         6.4720000000        9.0740000000       12.6950000000
 Au         6.5140000000        2.3260000000       15.0900000000
 Au         8.0290000000        4.7650000000       15.0300000000
 Au         6.4400000000        0.7520000000       10.3960000000
 Au         7.9340000000        3.1120000000       10.1410000000
 Au         6.3660000000        0.5380000000       17.3090000000
 Au         7.8790000000        3.0920000000       17.3410000000
 Au         7.7870000000        1.5190000000       12.7110000000
 Au         9.2360000000        4.0030000000       12.6620000000
 Au         9.3810000000        2.2850000000       15.2220000000
 Au        10.8650000000        4.6600000000       14.9830000000
 Au         9.3080000000        0.7970000000       10.4560000000
 Au        10.8400000000        3.1000000000       10.4560000000
 Au         9.3600000000        0.7380000000       17.6080000000
 Au        11.0250000000        3.1010000000       17.3100000000
 Au        10.6550000000        1.5280000000       12.7510000000
 Au         0.7000000000        3.9710000000       12.5920000000
 Au         0.7910000000        2.2090000000       15.0340000000
 Au         2.2490000000        4.6340000000       15.0310000000
 Au         0.6920000000        0.5440000000       10.3660000000
 Au         2.2200000000        3.0840000000       10.2610000000
 Au         0.6460000000        0.5050000000       17.5320000000
 Au         2.2140000000        3.0070000000       17.2660000000
 Au         2.1130000000        1.4800000000       12.5810000000
 Au         3.6090000000        3.9680000000       12.6530000000
 Au         3.7150000000        2.1590000000       15.0060000000
 Au         5.1630000000        4.7250000000       14.9820000000
 Au         3.7040000000        0.7090000000       10.3660000000
 Au         5.1830000000        3.1390000000       10.2990000000
 Au         3.6550000000        0.5230000000       17.4280000000
 Au         5.1460000000        3.0190000000       17.4070000000
 Au         5.0640000000        1.5770000000       12.6580000000
 Au         6.4880000000        4.1350000000       12.5470000000
 Cu         9.2770000000        7.2290000000       19.2110000000
  O         8.8240000000        8.7510000000       19.2180000000
  O         1.7410000000        9.8690000000       21.2200000000
  H         2.6500000000        9.6590000000       20.8590000000
  H         1.4440000000        9.1300000000       21.8250000000
  O         0.2100000000        1.3320000000       23.3150000000
  H         0.3420000000        1.6810000000       22.3870000000
  H         0.4210000000        0.3550000000       23.3360000000
  O         5.7130000000        6.9790000000        5.5190000000
  H         6.1330000000        6.4280000000        4.7970000000
  H         6.4020000000        7.2060000000        6.2080000000
  O         6.8470000000        6.5170000000       23.0630000000
  H         7.4510000000        6.1150000000       22.3740000000
  H         6.0300000000        6.8810000000       22.6170000000
  O         7.4610000000        8.5130000000        6.9530000000
  H         8.2140000000        8.3650000000        7.5940000000
  H         7.4550000000        9.4700000000        6.6620000000
  O         8.0610000000        8.2820000000        3.8940000000
  H         8.1850000000        9.0630000000        4.5050000000
  H         7.1680000000        8.3450000000        3.4490000000
  O        10.2330000000        7.8600000000        7.5660000000
  H        10.1040000000        7.3190000000        6.7350000000
  H        10.8540000000        8.6200000000        7.3770000000
  O         6.4460000000        2.0330000000       22.8270000000
  H         7.3730000000        1.8390000000       23.1480000000
  H         6.1560000000        2.9290000000       23.1650000000
  O         4.0280000000        4.8150000000        7.4000000000
  H         4.7380000000        5.3670000000        6.9620000000
  H         3.3380000000        5.4170000000        7.8020000000
  O         9.2520000000        4.1860000000        6.4160000000
  H         9.7190000000        3.4540000000        5.9200000000
  H         9.4810000000        5.0680000000        6.0040000000
  O         3.6350000000        6.3230000000       24.4160000000
  H         3.3770000000        7.0130000000       25.0920000000
  H         3.7860000000        6.7630000000       23.5310000000
  O         7.9810000000        0.7220000000        5.2880000000
  H         8.6620000000        1.2010000000        4.7340000000
  H         7.7840000000        1.2570000000        6.1100000000
  O         1.9690000000        8.5750000000       26.3140000000
  H         2.0790000000        9.5080000000       26.6560000000
  H         0.9950000000        8.3640000000       26.2270000000
  O        11.7730000000        5.4080000000       24.8970000000
  H        10.8770000000        4.9700000000       24.8300000000
  H        11.7190000000        6.1850000000       25.5240000000
  O        -0.0200000000        6.2390000000       22.2420000000
  H         0.2310000000        5.7160000000       23.0570000000
  H         0.6520000000        6.0760000000       21.5200000000
  O         8.4600000000        5.2940000000       21.4960000000
  H         8.2890000000        4.3490000000       21.2160000000
  H         9.4450000000        5.4460000000       21.5720000000
  O         5.6670000000        0.5760000000        3.8390000000
  H         6.5290000000        0.4510000000        4.3300000000
  H         5.5870000000       -0.1190000000        3.1240000000
  O         0.2500000000        5.0320000000        3.4540000000
  H         0.9250000000        4.8660000000        4.1720000000
  H         0.7120000000        5.3750000000        2.6360000000
  O         9.1320000000        1.4310000000       23.9020000000
  H        10.0490000000        1.5270000000       23.5140000000
  H         9.1420000000        0.7250000000       24.6100000000
  O         4.8580000000        4.1050000000       26.6620000000
  H         5.2630000000        4.2020000000       25.7530000000
  H         4.1530000000        4.8020000000       26.7900000000
  O         1.5810000000        8.7130000000        6.9310000000
  H         2.4340000000        8.8370000000        6.4240000000
  H         1.5950000000        9.2830000000        7.7520000000
  O         7.7110000000        2.1600000000        7.3780000000
  H         8.2760000000        2.9770000000        7.2650000000
  H         6.7560000000        2.3850000000        7.1820000000
  O         9.2200000000        4.1390000000       25.2550000000
  H         8.9230000000        3.8650000000       26.1700000000
  H         9.2120000000        3.3430000000       24.6500000000
  O         5.7450000000        8.0950000000        2.5640000000
  H         6.1910000000        8.0520000000        1.6700000000
  H         5.1020000000        7.3350000000        2.6520000000
  O         3.4640000000        6.9350000000        3.9750000000
  H         4.1840000000        7.4400000000        4.4510000000
  H         3.2510000000        6.1000000000        4.4820000000
  O        11.1450000000        1.4900000000        7.6400000000
  H        11.3120000000        2.4440000000        7.8870000000
  H        10.1600000000        1.3210000000        7.6080000000
  O         0.4000000000        8.6960000000       23.3270000000
  H         0.0180000000        7.8950000000       22.8660000000
  H         0.2540000000        8.6130000000       24.3130000000
  O         5.8380000000        2.0810000000        0.4510000000
  H         5.4830000000        2.2060000000        1.3780000000
  H         5.3940000000        2.7310000000       -0.1660000000
  O         8.9590000000        7.6750000000        1.3470000000
  H         8.4930000000        7.8520000000        2.2150000000
  H         9.8110000000        8.1970000000        1.3140000000
  O         4.8600000000        0.1340000000       23.9850000000
  H         5.2380000000       -0.0930000000       24.8820000000
  H         5.3230000000        0.9430000000       23.6230000000
  O         4.2920000000        8.0200000000       22.2430000000
  H         4.3210000000        8.4490000000       21.3410000000
  H         4.5110000000        8.7000000000       22.9430000000
  O         5.0100000000        3.2710000000        3.2770000000
  H         4.2680000000        3.5990000000        3.8630000000
  H         5.4090000000        2.4450000000        3.6760000000
  O         6.5280000000        5.4340000000        3.3680000000
  H         7.4780000000        5.1830000000        3.1840000000
  H         5.9340000000        4.6520000000        3.1790000000
  O         6.8280000000        7.3250000000       27.6250000000
  H         7.0110000000        7.0380000000       26.6840000000
  H         7.6920000000        7.5180000000       28.0890000000
  O         2.8560000000        1.6470000000        4.7250000000
  H         3.4340000000        1.2920000000        3.9910000000
  H         2.1060000000        1.0090000000        4.8980000000
  O         3.4480000000        3.0920000000       20.8670000000
  H         4.2680000000        2.6530000000       20.5010000000
  H         3.1360000000        2.5940000000       21.6760000000
  O         3.9630000000        9.3820000000        6.1280000000
  H         4.8170000000        8.9410000000        5.8530000000
  H         4.0650000000       10.3750000000        6.0630000000
  O         1.3830000000        6.3770000000        0.9310000000
  H         2.1560000000        6.4200000000        0.2990000000
  H         1.3770000000        7.1960000000        1.5060000000
  O         6.0770000000        2.0420000000       20.1630000000
  H         6.1410000000        1.9170000000       21.1530000000
  H         6.9910000000        2.1840000000       19.7850000000
  O         2.5270000000        1.2380000000        1.8800000000
  H         2.6470000000        1.2290000000        0.8870000000
  H         1.7460000000        1.8160000000        2.1160000000
  O         8.6860000000        6.8710000000       25.3450000000
  H         8.7980000000        5.8900000000       25.5000000000
  H         8.3220000000        7.0240000000       24.4260000000
  O         3.8240000000        6.6900000000       27.1610000000
  H         4.7780000000        6.9800000000       27.2440000000
  H         3.2890000000        7.4200000000       26.7370000000
  O         1.9540000000        5.3360000000       20.6770000000
  H         2.6990000000        5.9710000000       20.4690000000
  H         2.3350000000        4.4650000000       20.9860000000
  O         9.0100000000        4.6980000000        2.3780000000
  H         9.3210000000        5.5170000000        1.8960000000
  H         9.7340000000        4.3720000000        2.9860000000
  O         0.6940000000        9.8640000000        4.5040000000
  H         0.9580000000        9.1150000000        3.8960000000
  H         0.9060000000        9.6160000000        5.4490000000
  O         2.7140000000        4.2840000000        4.9810000000
  H         2.8090000000        4.4570000000        5.9620000000
  H         2.5490000000        3.3100000000        4.8290000000
  O        10.9570000000        8.0650000000       25.9480000000
  H        11.0030000000        8.4380000000       26.8750000000
  H        10.0450000000        7.6890000000       25.7850000000
  O         0.2000000000        1.9690000000       20.5680000000
  H         0.8900000000        2.5840000000       20.1870000000
  H         0.6170000000        1.0820000000       20.7660000000
  O        10.9470000000        1.9310000000        1.0080000000
  H        10.0690000000        2.2120000000        0.6220000000
  H        11.6510000000        2.5950000000        0.7540000000
  O         5.9740000000        9.9260000000       26.5230000000
  H         5.6800000000       10.6990000000       27.0840000000
  H         6.5150000000        9.2960000000       27.0810000000
  O         1.9760000000        8.5610000000        2.4580000000
  H         2.6740000000        7.9810000000        2.8800000000
  H         2.3800000000        9.4400000000        2.2070000000
  O        10.0370000000        1.6540000000        3.7260000000
  H        10.1760000000        1.9120000000        2.7700000000
  H        10.8710000000        1.2320000000        4.0820000000
  O         4.7750000000        2.4000000000        6.5110000000
  H         4.3050000000        3.1050000000        7.0410000000
  H         4.2480000000        2.1940000000        5.6860000000
  O         2.7940000000        2.0530000000       23.3820000000
  H         3.2550000000        1.2500000000       23.7600000000
  H         1.8070000000        1.9630000000       23.5130000000
  O         9.1590000000        2.9950000000       19.9680000000
  H         9.1520000000        2.9980000000       18.9680000000
  H        10.0120000000        2.5870000000       20.2940000000
  O        11.1260000000        9.1710000000        0.8060000000
  H        11.9120000000        8.8530000000        1.3360000000
  H        11.0230000000       10.1590000000        0.9220000000
  O         9.9370000000        6.4940000000        5.1930000000
  H         9.2450000000        7.0490000000        4.7330000000
  H        10.4810000000        6.0060000000        4.5100000000
  O         4.6160000000        9.3670000000       20.1190000000
  H         5.2710000000       10.0090000000       20.5170000000
  H         4.4520000000        9.6080000000       19.1630000000
  O         5.6040000000        4.4050000000       24.1060000000
  H         4.7360000000        4.9000000000       24.0570000000
  H         6.3520000000        5.0180000000       23.8510000000
  O         1.2970000000        3.6770000000        0.3940000000
  H         1.3940000000        4.6210000000        0.7100000000
  H         1.6190000000        3.6080000000       -0.5510000000
  O         1.6080000000        5.9790000000        7.4260000000
  H         1.5620000000        6.9430000000        7.1620000000
  H         0.7690000000        5.7250000000        7.9070000000
  O         8.5390000000        2.8660000000        0.3660000000
  H         8.5760000000        3.5110000000        1.1290000000
  H         7.6040000000        2.5290000000        0.2600000000
  O         2.2010000000        3.7080000000       25.6010000000
  H         2.5590000000        3.2120000000       24.8090000000
  H         1.5750000000        4.4230000000       25.2910000000
  O         2.6260000000        1.1870000000       26.8900000000
  H         3.5370000000        1.5230000000       26.6500000000
  H         1.9710000000        1.9410000000       26.8480000000
 